<routes xmlns:xsi="http://www.w3.org/2001/XMLSchema-instance" xsi:noNamespaceSchemaLocation="http://sumo.dlr.de/xsd/routes_file.xsd">

    <vType id="aggressive" carFollowModel="IDM" maxSpeed="44.4" minGap="1" accel="2" decel="3" tau="0.8" length="4.5"/>
    <vType id="exp_rspsv" carFollowModel="IDM" maxSpeed="33" minGap="2" accel="2" decel="1.5" tau="1.5" length="4.5"/>
    <vType id="relaxed" carFollowModel="IDM" maxSpeed="22" minGap="4" accel="1" decel="2.5" tau="2" length="4.5"/>
    <vType id="exp_dfsv" carFollowModel="IDM" maxSpeed="33" minGap="4" accel="1.5" decel="1.5" tau="2" length="4.5"/>
    <vType id="smoother" carFollowModel="IDM" maxSpeed="10" />

    <!-- Modify "type" to any from ["aggressive", "exp_rspsv", "relaxed", "exp_dfsv"]-->
    <flow id="flow1" type="relaxed" route="circle" begin="0" end="1" number="50" departPos="last" departSpeed="4.08"/>

    <!-- add one special vehicle to smooth the traffic -->
    <!-- <vehicle id="veh0" type="smoother" route="circle" depart="5" departPos="last" color="1,1,1"/> -->
</routes>
